<?xml version="1.0" encoding="UTF-8"?>

<!-- generated on 2023-10-05 16:52:59 by Eclipse SUMO netedit Version 1.18.0
-->

<configuration xmlns:xsi="http://www.w3.org/2001/XMLSchema-instance" xsi:noNamespaceSchemaLocation="http://sumo.dlr.de/xsd/neteditConfiguration.xsd">

    <input>
        <sumocfg-file value="sumo_config.sumocfg"/>
        <route-files value="episode_routes.rou.xml"/>
        <sumo-net-file value="environment.net.xml"/>
    </input>

    <output>
        <tls-file value="C:\Users\pc\Desktop\TRAFFIC SYSTEM\SUMO222\Deep-QLearning-Agent-for-Traffic-Signal-Control-1\TLCS\intersection\TLS.xml"/>
    </output>

    <processing>
        <geometry.min-radius.fix.railways value="false"/>
        <geometry.max-grade.fix value="false"/>
        <offset.disable-normalization value="true"/>
        <lefthand value="0"/>
    </processing>

    <junctions>
        <no-turnarounds value="true"/>
        <junctions.corner-detail value="5"/>
        <junctions.limit-turn-speed value="5.50"/>
        <rectangular-lane-cut value="0"/>
    </junctions>

    <pedestrian>
        <walkingareas value="0"/>
    </pedestrian>

</configuration>
