<?xml version="1.0" encoding="UTF-8"?>

<!-- generated on 2023-10-05 16:52:43 by Eclipse SUMO netedit Version 1.18.0
-->

<routes xmlns:xsi="http://www.w3.org/2001/XMLSchema-instance" xsi:noNamespaceSchemaLocation="http://sumo.dlr.de/xsd/routes_file.xsd">
    <!-- VTypes -->
    <vType id="bus" length="7.00" minGap="2.50" maxSpeed="15.00" vClass="bus" height="2.40" color="yellow" accel="1.0" decel="4.5" sigma="0.5"/>
    <vType id="car" length="3.00" minGap="1.00" maxSpeed="15.00" vClass="private" height="2.40" color="red" accel="1.0" decel="4.5" sigma="0.5"/>
    <vType id="motorcycle" length="1.50" minGap="1.00" maxSpeed="15.00" vClass="motorcycle" height="1.20" color="blue" accel="1.0" decel="4.5" sigma="0.5"/>
    <!-- Routes -->
    <route id="E_W" edges="E2TL TL2W"/>
    <route id="U_T1" edges="E2TL TL2E"/>
    <route id="U_T2" edges="E2TL TL2E"/>
    <route id="U_T3" edges="W2TL TL2W"/>
    <route id="U_T4" edges="W2TL TL2W"/>
    <route id="W_E" edges="W2TL TL2E"/>
    <!-- Vehicles, persons and containers (sorted by depart) -->
    <vehicle id="car_T1_0" type="car" depart="0.00" departLane="2" departSpeed="10.00" route="U_T1"/>
    <vehicle id="car_T3_0" type="car" depart="0.00" departLane="0" departSpeed="10.00" route="U_T3"/>
    <vehicle id="motorcycle_T1_0" type="motorcycle" depart="6.45" departLane="0" departSpeed="10.00" route="U_T1"/>
    <vehicle id="motorcycle_T3_0" type="motorcycle" depart="9.27" departLane="1" departSpeed="10.00" route="U_T3"/>
    <vehicle id="car_T1_1" type="car" depart="12.16" departLane="0" departSpeed="10.00" route="U_T1"/>
    <vehicle id="motorcycle_T1_1" type="motorcycle" depart="17.11" departLane="1" departSpeed="10.00" route="U_T1"/>
    <vehicle id="bus_E_W_0" type="bus" depart="18.23" departLane="3" departSpeed="12.00" line="3" route="E_W"/>
    <vehicle id="bus_W_E_0" type="bus" depart="18.73" departLane="3" departSpeed="12.00" line="3" route="W_E"/>
    <vehicle id="motorcycle_T1_2" type="motorcycle" depart="19.78" departLane="2" departSpeed="10.00" route="U_T1"/>
    <vehicle id="car_T1_2" type="car" depart="20.01" departLane="1" departSpeed="10.00" route="U_T1"/>
    <vehicle id="car_T3_1" type="car" depart="21.82" departLane="1" departSpeed="10.00" route="U_T3"/>
    <vehicle id="motorcycle_T3_1" type="motorcycle" depart="24.65" departLane="2" departSpeed="10.00" route="U_T3"/>
    <vehicle id="car_T1_3" type="car" depart="28.28" departLane="2" departSpeed="10.00" route="U_T1"/>
    <vehicle id="motorcycle_T1_3" type="motorcycle" depart="28.57" departLane="0" departSpeed="10.00" route="U_T1"/>
    <vehicle id="car_T3_2" type="car" depart="29.54" departLane="2" departSpeed="10.00" route="U_T3"/>
    <vehicle id="motorcycle_T1_4" type="motorcycle" depart="37.43" departLane="1" departSpeed="10.00" route="U_T1"/>
    <vehicle id="car_T1_4" type="car" depart="38.86" departLane="0" departSpeed="10.00" route="U_T1"/>
    <vehicle id="bus_W_E_1" type="bus" depart="38.87" departLane="3" departSpeed="12.00" line="3" route="W_E"/>
    <vehicle id="bus_E_W_1" type="bus" depart="41.74" departLane="3" departSpeed="12.00" line="3" route="E_W"/>
    <vehicle id="motorcycle_T3_2" type="motorcycle" depart="43.00" departLane="0" departSpeed="10.00" route="U_T3"/>
    <vehicle id="motorcycle_T1_5" type="motorcycle" depart="43.83" departLane="2" departSpeed="10.00" route="U_T1"/>
    <vehicle id="car_T3_3" type="car" depart="46.48" departLane="0" departSpeed="10.00" route="U_T3"/>
    <vehicle id="car_T1_5" type="car" depart="49.45" departLane="1" departSpeed="10.00" route="U_T1"/>
    <vehicle id="motorcycle_T1_6" type="motorcycle" depart="52.86" departLane="0" departSpeed="10.00" route="U_T1"/>
    <vehicle id="motorcycle_T1_7" type="motorcycle" depart="57.11" departLane="1" departSpeed="10.00" route="U_T1"/>
    <vehicle id="motorcycle_T3_3" type="motorcycle" depart="59.15" departLane="1" departSpeed="10.00" route="U_T3"/>
    <vehicle id="motorcycle_T1_8" type="motorcycle" depart="60.61" departLane="2" departSpeed="10.00" route="U_T1"/>
    <vehicle id="car_T1_6" type="car" depart="63.01" departLane="2" departSpeed="10.00" route="U_T1"/>
    <vehicle id="motorcycle_T1_9" type="motorcycle" depart="65.78" departLane="0" departSpeed="10.00" route="U_T1"/>
    <vehicle id="bus_W_E_2" type="bus" depart="66.83" departLane="3" departSpeed="12.00" line="3" route="W_E"/>
    <vehicle id="bus_E_W_2" type="bus" depart="69.76" departLane="3" departSpeed="12.00" line="3" route="E_W"/>
    <vehicle id="car_T3_4" type="car" depart="72.87" departLane="1" departSpeed="10.00" route="U_T3"/>
    <vehicle id="car_T1_7" type="car" depart="73.31" departLane="0" departSpeed="10.00" route="U_T1"/>
    <vehicle id="motorcycle_T1_10" type="motorcycle" depart="79.58" departLane="1" departSpeed="10.00" route="U_T1"/>
    <vehicle id="car_T1_8" type="car" depart="84.41" departLane="1" departSpeed="10.00" route="U_T1"/>
    <vehicle id="motorcycle_T1_11" type="motorcycle" depart="85.44" departLane="2" departSpeed="10.00" route="U_T1"/>
    <vehicle id="motorcycle_T3_4" type="motorcycle" depart="85.87" departLane="2" departSpeed="10.00" route="U_T3"/>
    <vehicle id="bus_E_W_3" type="bus" depart="89.42" departLane="3" departSpeed="12.00" line="3" route="E_W"/>
    <vehicle id="car_T3_5" type="car" depart="89.90" departLane="2" departSpeed="10.00" route="U_T3"/>
    <vehicle id="bus_W_E_3" type="bus" depart="91.97" departLane="3" departSpeed="12.00" line="3" route="W_E"/>
    <vehicle id="motorcycle_T1_12" type="motorcycle" depart="95.14" departLane="0" departSpeed="10.00" route="U_T1"/>
    <vehicle id="car_T1_9" type="car" depart="98.57" departLane="2" departSpeed="10.00" route="U_T1"/>
    <vehicle id="motorcycle_T3_5" type="motorcycle" depart="99.25" departLane="0" departSpeed="10.00" route="U_T3"/>
    <vehicle id="car_T1_10" type="car" depart="102.41" departLane="0" departSpeed="10.00" route="U_T1"/>
    <vehicle id="car_T1_11" type="car" depart="106.47" departLane="1" departSpeed="10.00" route="U_T1"/>
    <vehicle id="motorcycle_T1_13" type="motorcycle" depart="107.20" departLane="1" departSpeed="10.00" route="U_T1"/>
    <vehicle id="car_T3_6" type="car" depart="111.06" departLane="0" departSpeed="10.00" route="U_T3"/>
    <vehicle id="bus_E_W_4" type="bus" depart="111.74" departLane="3" departSpeed="12.00" line="3" route="E_W"/>
    <vehicle id="car_T1_12" type="car" depart="113.70" departLane="2" departSpeed="10.00" route="U_T1"/>
    <vehicle id="car_T1_13" type="car" depart="116.79" departLane="0" departSpeed="10.00" route="U_T1"/>
    <vehicle id="bus_W_E_4" type="bus" depart="118.17" departLane="3" departSpeed="12.00" line="3" route="W_E"/>
    <vehicle id="car_T1_14" type="car" depart="121.13" departLane="1" departSpeed="10.00" route="U_T1"/>
    <vehicle id="motorcycle_T1_14" type="motorcycle" depart="122.03" departLane="2" departSpeed="10.00" route="U_T1"/>
    <vehicle id="motorcycle_T3_6" type="motorcycle" depart="124.45" departLane="1" departSpeed="10.00" route="U_T3"/>
    <vehicle id="bus_E_W_5" type="bus" depart="129.37" departLane="3" departSpeed="12.00" line="3" route="E_W"/>
    <vehicle id="motorcycle_T1_15" type="motorcycle" depart="129.85" departLane="0" departSpeed="10.00" route="U_T1"/>
    <vehicle id="car_T3_7" type="car" depart="130.16" departLane="1" departSpeed="10.00" route="U_T3"/>
    <vehicle id="car_T1_15" type="car" depart="132.70" departLane="2" departSpeed="10.00" route="U_T1"/>
    <vehicle id="bus_W_E_5" type="bus" depart="138.70" departLane="3" departSpeed="12.00" line="3" route="W_E"/>
    <vehicle id="motorcycle_T3_7" type="motorcycle" depart="143.86" departLane="2" departSpeed="10.00" route="U_T3"/>
    <vehicle id="motorcycle_T1_16" type="motorcycle" depart="144.70" departLane="1" departSpeed="10.00" route="U_T1"/>
    <vehicle id="car_T1_16" type="car" depart="146.47" departLane="0" departSpeed="10.00" route="U_T1"/>
    <vehicle id="bus_E_W_6" type="bus" depart="146.59" departLane="3" departSpeed="12.00" line="3" route="E_W"/>
    <vehicle id="car_T3_8" type="car" depart="149.89" departLane="2" departSpeed="10.00" route="U_T3"/>
    <vehicle id="motorcycle_T1_17" type="motorcycle" depart="152.51" departLane="2" departSpeed="10.00" route="U_T1"/>
    <vehicle id="car_T1_17" type="car" depart="154.88" departLane="1" departSpeed="10.00" route="U_T1"/>
    <vehicle id="motorcycle_T3_8" type="motorcycle" depart="160.35" departLane="0" departSpeed="10.00" route="U_T3"/>
    <vehicle id="car_T1_18" type="car" depart="162.45" departLane="2" departSpeed="10.00" route="U_T1"/>
    <vehicle id="motorcycle_T1_18" type="motorcycle" depart="164.96" departLane="0" departSpeed="10.00" route="U_T1"/>
    <vehicle id="bus_W_E_6" type="bus" depart="167.30" departLane="3" departSpeed="12.00" line="3" route="W_E"/>
    <vehicle id="bus_E_W_7" type="bus" depart="172.47" departLane="3" departSpeed="12.00" line="3" route="E_W"/>
    <vehicle id="motorcycle_T1_19" type="motorcycle" depart="175.00" departLane="1" departSpeed="10.00" route="U_T1"/>
    <vehicle id="car_T3_9" type="car" depart="175.04" departLane="0" departSpeed="10.00" route="U_T3"/>
    <vehicle id="car_T1_19" type="car" depart="177.18" departLane="0" departSpeed="10.00" route="U_T1"/>
    <vehicle id="motorcycle_T3_9" type="motorcycle" depart="177.68" departLane="1" departSpeed="10.00" route="U_T3"/>
    <vehicle id="car_T3_10" type="car" depart="184.58" departLane="1" departSpeed="10.00" route="U_T3"/>
    <vehicle id="car_T1_20" type="car" depart="187.77" departLane="1" departSpeed="10.00" route="U_T1"/>
    <vehicle id="motorcycle_T1_20" type="motorcycle" depart="188.20" departLane="2" departSpeed="10.00" route="U_T1"/>
    <vehicle id="bus_E_W_8" type="bus" depart="188.30" departLane="3" departSpeed="12.00" line="3" route="E_W"/>
    <vehicle id="bus_W_E_7" type="bus" depart="190.23" departLane="3" departSpeed="12.00" line="3" route="W_E"/>
    <vehicle id="car_T1_21" type="car" depart="191.94" departLane="2" departSpeed="10.00" route="U_T1"/>
    <vehicle id="motorcycle_T3_10" type="motorcycle" depart="193.97" departLane="2" departSpeed="10.00" route="U_T3"/>
    <vehicle id="car_T1_22" type="car" depart="198.34" departLane="0" departSpeed="10.00" route="U_T1"/>
    <vehicle id="car_T3_11" type="car" depart="199.60" departLane="2" departSpeed="10.00" route="U_T3"/>
    <vehicle id="car_T1_23" type="car" depart="200.72" departLane="1" departSpeed="10.00" route="U_T1"/>
    <vehicle id="motorcycle_T1_21" type="motorcycle" depart="202.61" departLane="0" departSpeed="10.00" route="U_T1"/>
    <vehicle id="bus_E_W_9" type="bus" depart="205.14" departLane="3" departSpeed="12.00" line="3" route="E_W"/>
    <vehicle id="motorcycle_T3_11" type="motorcycle" depart="205.31" departLane="0" departSpeed="10.00" route="U_T3"/>
    <vehicle id="car_T1_24" type="car" depart="206.28" departLane="2" departSpeed="10.00" route="U_T1"/>
    <vehicle id="bus_W_E_8" type="bus" depart="207.25" departLane="3" departSpeed="12.00" line="3" route="W_E"/>
    <vehicle id="car_T3_12" type="car" depart="210.07" departLane="0" departSpeed="10.00" route="U_T3"/>
    <vehicle id="motorcycle_T1_22" type="motorcycle" depart="213.61" departLane="1" departSpeed="10.00" route="U_T1"/>
    <vehicle id="motorcycle_T3_12" type="motorcycle" depart="214.70" departLane="1" departSpeed="10.00" route="U_T3"/>
    <vehicle id="motorcycle_T1_23" type="motorcycle" depart="215.63" departLane="2" departSpeed="10.00" route="U_T1"/>
    <vehicle id="motorcycle_T1_24" type="motorcycle" depart="219.53" departLane="0" departSpeed="10.00" route="U_T1"/>
    <vehicle id="car_T1_25" type="car" depart="221.16" departLane="0" departSpeed="10.00" route="U_T1"/>
    <vehicle id="car_T3_13" type="car" depart="222.21" departLane="1" departSpeed="10.00" route="U_T3"/>
    <vehicle id="bus_E_W_10" type="bus" depart="229.71" departLane="3" departSpeed="12.00" line="3" route="E_W"/>
    <vehicle id="car_T1_26" type="car" depart="229.77" departLane="1" departSpeed="10.00" route="U_T1"/>
    <vehicle id="bus_W_E_9" type="bus" depart="230.51" departLane="3" departSpeed="12.00" line="3" route="W_E"/>
    <vehicle id="motorcycle_T1_25" type="motorcycle" depart="233.75" departLane="1" departSpeed="10.00" route="U_T1"/>
    <vehicle id="motorcycle_T3_13" type="motorcycle" depart="234.39" departLane="2" departSpeed="10.00" route="U_T3"/>
    <vehicle id="car_T3_14" type="car" depart="238.07" departLane="2" departSpeed="10.00" route="U_T3"/>
    <vehicle id="motorcycle_T3_14" type="motorcycle" depart="241.66" departLane="0" departSpeed="10.00" route="U_T3"/>
    <vehicle id="car_T1_27" type="car" depart="242.94" departLane="2" departSpeed="10.00" route="U_T1"/>
    <vehicle id="motorcycle_T1_26" type="motorcycle" depart="246.64" departLane="2" departSpeed="10.00" route="U_T1"/>
    <vehicle id="car_T1_28" type="car" depart="251.43" departLane="0" departSpeed="10.00" route="U_T1"/>
    <vehicle id="motorcycle_T1_27" type="motorcycle" depart="255.03" departLane="0" departSpeed="10.00" route="U_T1"/>
    <vehicle id="car_T3_15" type="car" depart="255.77" departLane="0" departSpeed="10.00" route="U_T3"/>
    <vehicle id="bus_E_W_11" type="bus" depart="257.13" departLane="3" departSpeed="12.00" line="3" route="E_W"/>
    <vehicle id="bus_W_E_10" type="bus" depart="257.23" departLane="3" departSpeed="12.00" line="3" route="W_E"/>
    <vehicle id="car_T1_29" type="car" depart="257.67" departLane="1" departSpeed="10.00" route="U_T1"/>
    <vehicle id="car_T1_30" type="car" depart="260.32" departLane="2" departSpeed="10.00" route="U_T1"/>
    <vehicle id="motorcycle_T1_28" type="motorcycle" depart="262.37" departLane="1" departSpeed="10.00" route="U_T1"/>
    <vehicle id="motorcycle_T3_15" type="motorcycle" depart="263.18" departLane="1" departSpeed="10.00" route="U_T3"/>
    <vehicle id="car_T1_31" type="car" depart="265.77" departLane="0" departSpeed="10.00" route="U_T1"/>
    <vehicle id="motorcycle_T1_29" type="motorcycle" depart="267.65" departLane="2" departSpeed="10.00" route="U_T1"/>
    <vehicle id="car_T1_32" type="car" depart="271.81" departLane="1" departSpeed="10.00" route="U_T1"/>
    <vehicle id="car_T3_16" type="car" depart="272.82" departLane="1" departSpeed="10.00" route="U_T3"/>
    <vehicle id="motorcycle_T1_30" type="motorcycle" depart="275.38" departLane="0" departSpeed="10.00" route="U_T1"/>
    <vehicle id="motorcycle_T3_16" type="motorcycle" depart="277.35" departLane="2" departSpeed="10.00" route="U_T3"/>
    <vehicle id="car_T1_33" type="car" depart="282.92" departLane="2" departSpeed="10.00" route="U_T1"/>
    <vehicle id="bus_W_E_11" type="bus" depart="284.25" departLane="3" departSpeed="12.00" line="3" route="W_E"/>
    <vehicle id="bus_E_W_12" type="bus" depart="284.56" departLane="3" departSpeed="12.00" line="3" route="E_W"/>
    <vehicle id="motorcycle_T1_31" type="motorcycle" depart="289.48" departLane="1" departSpeed="10.00" route="U_T1"/>
    <vehicle id="car_T1_34" type="car" depart="290.24" departLane="0" departSpeed="10.00" route="U_T1"/>
    <vehicle id="car_T3_17" type="car" depart="291.70" departLane="2" departSpeed="10.00" route="U_T3"/>
    <vehicle id="motorcycle_T3_17" type="motorcycle" depart="295.08" departLane="0" departSpeed="10.00" route="U_T3"/>
    <vehicle id="car_T1_35" type="car" depart="299.01" departLane="1" departSpeed="10.00" route="U_T1"/>
    <vehicle id="motorcycle_T1_32" type="motorcycle" depart="300.72" departLane="2" departSpeed="10.00" route="U_T1"/>
    <vehicle id="motorcycle_T1_33" type="motorcycle" depart="303.07" departLane="0" departSpeed="10.00" route="U_T1"/>
    <vehicle id="car_T3_18" type="car" depart="303.12" departLane="0" departSpeed="10.00" route="U_T3"/>
    <vehicle id="car_T1_36" type="car" depart="303.73" departLane="2" departSpeed="10.00" route="U_T1"/>
    <vehicle id="motorcycle_T1_34" type="motorcycle" depart="310.04" departLane="1" departSpeed="10.00" route="U_T1"/>
    <vehicle id="bus_W_E_12" type="bus" depart="312.58" departLane="3" departSpeed="12.00" line="3" route="W_E"/>
    <vehicle id="motorcycle_T3_18" type="motorcycle" depart="313.09" departLane="1" departSpeed="10.00" route="U_T3"/>
    <vehicle id="bus_E_W_13" type="bus" depart="314.44" departLane="3" departSpeed="12.00" line="3" route="E_W"/>
    <vehicle id="car_T1_37" type="car" depart="317.38" departLane="0" departSpeed="10.00" route="U_T1"/>
    <vehicle id="motorcycle_T1_35" type="motorcycle" depart="321.36" departLane="2" departSpeed="10.00" route="U_T1"/>
    <vehicle id="car_T1_38" type="car" depart="324.89" departLane="1" departSpeed="10.00" route="U_T1"/>
    <vehicle id="car_T3_19" type="car" depart="325.41" departLane="1" departSpeed="10.00" route="U_T3"/>
    <vehicle id="car_T1_39" type="car" depart="328.18" departLane="2" departSpeed="10.00" route="U_T1"/>
    <vehicle id="car_T1_40" type="car" depart="330.90" departLane="0" departSpeed="10.00" route="U_T1"/>
    <vehicle id="motorcycle_T1_36" type="motorcycle" depart="333.55" departLane="0" departSpeed="10.00" route="U_T1"/>
    <vehicle id="motorcycle_T3_19" type="motorcycle" depart="334.45" departLane="2" departSpeed="10.00" route="U_T3"/>
    <vehicle id="car_T3_20" type="car" depart="336.98" departLane="2" departSpeed="10.00" route="U_T3"/>
    <vehicle id="motorcycle_T1_37" type="motorcycle" depart="337.49" departLane="1" departSpeed="10.00" route="U_T1"/>
    <vehicle id="bus_W_E_13" type="bus" depart="339.64" departLane="3" departSpeed="12.00" line="3" route="W_E"/>
    <vehicle id="bus_E_W_14" type="bus" depart="340.41" departLane="3" departSpeed="12.00" line="3" route="E_W"/>
    <vehicle id="motorcycle_T1_38" type="motorcycle" depart="340.66" departLane="2" departSpeed="10.00" route="U_T1"/>
    <vehicle id="motorcycle_T1_39" type="motorcycle" depart="342.26" departLane="0" departSpeed="10.00" route="U_T1"/>
    <vehicle id="motorcycle_T3_20" type="motorcycle" depart="342.94" departLane="0" departSpeed="10.00" route="U_T3"/>
    <vehicle id="car_T1_41" type="car" depart="345.78" departLane="1" departSpeed="10.00" route="U_T1"/>
    <vehicle id="motorcycle_T1_40" type="motorcycle" depart="351.46" departLane="1" departSpeed="10.00" route="U_T1"/>
    <vehicle id="car_T3_21" type="car" depart="354.46" departLane="0" departSpeed="10.00" route="U_T3"/>
    <vehicle id="motorcycle_T1_41" type="motorcycle" depart="354.48" departLane="2" departSpeed="10.00" route="U_T1"/>
    <vehicle id="car_T1_42" type="car" depart="355.11" departLane="2" departSpeed="10.00" route="U_T1"/>
    <vehicle id="car_T1_43" type="car" depart="358.15" departLane="0" departSpeed="10.00" route="U_T1"/>
    <vehicle id="motorcycle_T1_42" type="motorcycle" depart="358.46" departLane="0" departSpeed="10.00" route="U_T1"/>
    <vehicle id="bus_W_E_14" type="bus" depart="362.08" departLane="3" departSpeed="12.00" line="3" route="W_E"/>
    <vehicle id="motorcycle_T3_21" type="motorcycle" depart="363.16" departLane="1" departSpeed="10.00" route="U_T3"/>
    <vehicle id="car_T1_44" type="car" depart="366.60" departLane="1" departSpeed="10.00" route="U_T1"/>
    <vehicle id="bus_E_W_15" type="bus" depart="367.41" departLane="3" departSpeed="12.00" line="3" route="E_W"/>
    <vehicle id="car_T3_22" type="car" depart="368.26" departLane="1" departSpeed="10.00" route="U_T3"/>
    <vehicle id="motorcycle_T1_43" type="motorcycle" depart="368.98" departLane="1" departSpeed="10.00" route="U_T1"/>
    <vehicle id="motorcycle_T3_22" type="motorcycle" depart="371.99" departLane="2" departSpeed="10.00" route="U_T3"/>
    <vehicle id="motorcycle_T1_44" type="motorcycle" depart="373.34" departLane="2" departSpeed="10.00" route="U_T1"/>
    <vehicle id="motorcycle_T1_45" type="motorcycle" depart="375.85" departLane="0" departSpeed="10.00" route="U_T1"/>
    <vehicle id="car_T3_23" type="car" depart="380.37" departLane="2" departSpeed="10.00" route="U_T3"/>
    <vehicle id="car_T1_45" type="car" depart="381.21" departLane="2" departSpeed="10.00" route="U_T1"/>
    <vehicle id="motorcycle_T1_46" type="motorcycle" depart="384.44" departLane="1" departSpeed="10.00" route="U_T1"/>
    <vehicle id="bus_W_E_15" type="bus" depart="384.47" departLane="3" departSpeed="12.00" line="3" route="W_E"/>
    <vehicle id="motorcycle_T3_23" type="motorcycle" depart="388.76" departLane="0" departSpeed="10.00" route="U_T3"/>
    <vehicle id="car_T1_46" type="car" depart="388.95" departLane="0" departSpeed="10.00" route="U_T1"/>
    <vehicle id="motorcycle_T1_47" type="motorcycle" depart="393.95" departLane="2" departSpeed="10.00" route="U_T1"/>
    <vehicle id="bus_E_W_16" type="bus" depart="394.61" departLane="3" departSpeed="12.00" line="3" route="E_W"/>
    <vehicle id="car_T1_47" type="car" depart="396.55" departLane="1" departSpeed="10.00" route="U_T1"/>
    <vehicle id="car_T3_24" type="car" depart="397.49" departLane="0" departSpeed="10.00" route="U_T3"/>
    <vehicle id="motorcycle_T1_48" type="motorcycle" depart="397.84" departLane="0" departSpeed="10.00" route="U_T1"/>
    <vehicle id="car_T1_48" type="car" depart="398.60" departLane="2" departSpeed="10.00" route="U_T1"/>
    <vehicle id="motorcycle_T1_49" type="motorcycle" depart="401.59" departLane="1" departSpeed="10.00" route="U_T1"/>
    <vehicle id="bus_W_E_16" type="bus" depart="404.36" departLane="3" departSpeed="12.00" line="3" route="W_E"/>
    <vehicle id="car_T1_49" type="car" depart="407.81" departLane="0" departSpeed="10.00" route="U_T1"/>
    <vehicle id="bus_E_W_17" type="bus" depart="409.90" departLane="3" departSpeed="12.00" line="3" route="E_W"/>
    <vehicle id="motorcycle_T3_24" type="motorcycle" depart="410.25" departLane="1" departSpeed="10.00" route="U_T3"/>
    <vehicle id="motorcycle_T1_50" type="motorcycle" depart="410.73" departLane="2" departSpeed="10.00" route="U_T1"/>
    <vehicle id="car_T3_25" type="car" depart="420.20" departLane="1" departSpeed="10.00" route="U_T3"/>
    <vehicle id="car_T1_50" type="car" depart="420.61" departLane="1" departSpeed="10.00" route="U_T1"/>
    <vehicle id="bus_W_E_17" type="bus" depart="421.07" departLane="3" departSpeed="12.00" line="3" route="W_E"/>
    <vehicle id="motorcycle_T1_51" type="motorcycle" depart="422.84" departLane="0" departSpeed="10.00" route="U_T1"/>
    <vehicle id="motorcycle_T1_52" type="motorcycle" depart="426.06" departLane="1" departSpeed="10.00" route="U_T1"/>
    <vehicle id="bus_E_W_18" type="bus" depart="426.44" departLane="3" departSpeed="12.00" line="3" route="E_W"/>
    <vehicle id="car_T1_51" type="car" depart="427.93" departLane="2" departSpeed="10.00" route="U_T1"/>
    <vehicle id="motorcycle_T3_25" type="motorcycle" depart="429.06" departLane="2" departSpeed="10.00" route="U_T3"/>
    <vehicle id="motorcycle_T1_53" type="motorcycle" depart="436.10" departLane="2" departSpeed="10.00" route="U_T1"/>
    <vehicle id="bus_W_E_18" type="bus" depart="440.13" departLane="3" departSpeed="12.00" line="3" route="W_E"/>
    <vehicle id="car_T1_52" type="car" depart="442.74" departLane="0" departSpeed="10.00" route="U_T1"/>
    <vehicle id="motorcycle_T1_54" type="motorcycle" depart="442.99" departLane="0" departSpeed="10.00" route="U_T1"/>
    <vehicle id="car_T3_26" type="car" depart="443.68" departLane="2" departSpeed="10.00" route="U_T3"/>
    <vehicle id="car_T1_53" type="car" depart="447.37" departLane="1" departSpeed="10.00" route="U_T1"/>
    <vehicle id="motorcycle_T1_55" type="motorcycle" depart="448.73" departLane="1" departSpeed="10.00" route="U_T1"/>
    <vehicle id="bus_E_W_19" type="bus" depart="449.43" departLane="3" departSpeed="12.00" line="3" route="E_W"/>
    <vehicle id="motorcycle_T1_56" type="motorcycle" depart="451.17" departLane="2" departSpeed="10.00" route="U_T1"/>
    <vehicle id="motorcycle_T1_57" type="motorcycle" depart="452.51" departLane="0" departSpeed="10.00" route="U_T1"/>
    <vehicle id="motorcycle_T1_58" type="motorcycle" depart="455.57" departLane="1" departSpeed="10.00" route="U_T1"/>
    <vehicle id="motorcycle_T3_26" type="motorcycle" depart="457.15" departLane="0" departSpeed="10.00" route="U_T3"/>
    <vehicle id="car_T1_54" type="car" depart="459.43" departLane="2" departSpeed="10.00" route="U_T1"/>
    <vehicle id="motorcycle_T1_59" type="motorcycle" depart="463.90" departLane="2" departSpeed="10.00" route="U_T1"/>
    <vehicle id="car_T3_27" type="car" depart="464.53" departLane="0" departSpeed="10.00" route="U_T3"/>
    <vehicle id="bus_E_W_20" type="bus" depart="469.12" departLane="3" departSpeed="12.00" line="3" route="E_W"/>
    <vehicle id="bus_W_E_19" type="bus" depart="469.51" departLane="3" departSpeed="12.00" line="3" route="W_E"/>
    <vehicle id="motorcycle_T1_60" type="motorcycle" depart="470.70" departLane="0" departSpeed="10.00" route="U_T1"/>
    <vehicle id="car_T1_55" type="car" depart="471.59" departLane="0" departSpeed="10.00" route="U_T1"/>
    <vehicle id="motorcycle_T3_27" type="motorcycle" depart="472.60" departLane="1" departSpeed="10.00" route="U_T3"/>
    <vehicle id="car_T1_56" type="car" depart="475.64" departLane="1" departSpeed="10.00" route="U_T1"/>
    <vehicle id="motorcycle_T1_61" type="motorcycle" depart="479.19" departLane="1" departSpeed="10.00" route="U_T1"/>
    <vehicle id="car_T3_28" type="car" depart="479.47" departLane="1" departSpeed="10.00" route="U_T3"/>
    <vehicle id="motorcycle_T1_62" type="motorcycle" depart="483.10" departLane="2" departSpeed="10.00" route="U_T1"/>
    <vehicle id="car_T1_57" type="car" depart="487.06" departLane="2" departSpeed="10.00" route="U_T1"/>
    <vehicle id="car_T1_58" type="car" depart="489.11" departLane="0" departSpeed="10.00" route="U_T1"/>
    <vehicle id="motorcycle_T1_63" type="motorcycle" depart="489.38" departLane="0" departSpeed="10.00" route="U_T1"/>
    <vehicle id="bus_W_E_20" type="bus" depart="489.41" departLane="3" departSpeed="12.00" line="3" route="W_E"/>
    <vehicle id="motorcycle_T3_28" type="motorcycle" depart="490.30" departLane="2" departSpeed="10.00" route="U_T3"/>
    <vehicle id="bus_E_W_21" type="bus" depart="497.20" departLane="3" departSpeed="12.00" line="3" route="E_W"/>
    <vehicle id="car_T1_59" type="car" depart="497.39" departLane="1" departSpeed="10.00" route="U_T1"/>
    <vehicle id="car_T3_29" type="car" depart="499.43" departLane="2" departSpeed="10.00" route="U_T3"/>
    <vehicle id="motorcycle_T3_29" type="motorcycle" depart="501.78" departLane="0" departSpeed="10.00" route="U_T3"/>
    <vehicle id="motorcycle_T1_64" type="motorcycle" depart="504.05" departLane="1" departSpeed="10.00" route="U_T1"/>
    <vehicle id="car_T1_60" type="car" depart="510.42" departLane="2" departSpeed="10.00" route="U_T1"/>
    <vehicle id="motorcycle_T1_65" type="motorcycle" depart="513.78" departLane="2" departSpeed="10.00" route="U_T1"/>
    <vehicle id="car_T1_61" type="car" depart="513.80" departLane="0" departSpeed="10.00" route="U_T1"/>
    <vehicle id="car_T3_30" type="car" depart="514.56" departLane="0" departSpeed="10.00" route="U_T3"/>
    <vehicle id="bus_W_E_21" type="bus" depart="517.15" departLane="3" departSpeed="12.00" line="3" route="W_E"/>
    <vehicle id="car_T1_62" type="car" depart="518.23" departLane="1" departSpeed="10.00" route="U_T1"/>
    <vehicle id="motorcycle_T1_66" type="motorcycle" depart="518.35" departLane="0" departSpeed="10.00" route="U_T1"/>
    <vehicle id="car_T1_63" type="car" depart="522.18" departLane="2" departSpeed="10.00" route="U_T1"/>
    <vehicle id="bus_E_W_22" type="bus" depart="524.21" departLane="3" departSpeed="12.00" line="3" route="E_W"/>
    <vehicle id="motorcycle_T3_30" type="motorcycle" depart="525.48" departLane="1" departSpeed="10.00" route="U_T3"/>
    <vehicle id="car_T1_64" type="car" depart="526.12" departLane="0" departSpeed="10.00" route="U_T1"/>
    <vehicle id="car_T3_31" type="car" depart="527.86" departLane="1" departSpeed="10.00" route="U_T3"/>
    <vehicle id="motorcycle_T1_67" type="motorcycle" depart="530.77" departLane="1" departSpeed="10.00" route="U_T1"/>
    <vehicle id="car_T1_65" type="car" depart="533.34" departLane="1" departSpeed="10.00" route="U_T1"/>
    <vehicle id="bus_W_E_22" type="bus" depart="535.76" departLane="3" departSpeed="12.00" line="3" route="W_E"/>
    <vehicle id="motorcycle_T1_68" type="motorcycle" depart="540.11" departLane="2" departSpeed="10.00" route="U_T1"/>
    <vehicle id="motorcycle_T3_31" type="motorcycle" depart="541.17" departLane="2" departSpeed="10.00" route="U_T3"/>
    <vehicle id="car_T3_32" type="car" depart="543.48" departLane="2" departSpeed="10.00" route="U_T3"/>
    <vehicle id="car_T1_66" type="car" depart="545.31" departLane="2" departSpeed="10.00" route="U_T1"/>
    <vehicle id="motorcycle_T1_69" type="motorcycle" depart="550.66" departLane="0" departSpeed="10.00" route="U_T1"/>
    <vehicle id="bus_E_W_23" type="bus" depart="554.19" departLane="3" departSpeed="12.00" line="3" route="E_W"/>
    <vehicle id="motorcycle_T3_32" type="motorcycle" depart="554.75" departLane="0" departSpeed="10.00" route="U_T3"/>
    <vehicle id="car_T1_67" type="car" depart="555.40" departLane="0" departSpeed="10.00" route="U_T1"/>
    <vehicle id="motorcycle_T1_70" type="motorcycle" depart="555.58" departLane="1" departSpeed="10.00" route="U_T1"/>
    <vehicle id="bus_W_E_23" type="bus" depart="557.91" departLane="3" departSpeed="12.00" line="3" route="W_E"/>
    <vehicle id="motorcycle_T1_71" type="motorcycle" depart="564.08" departLane="2" departSpeed="10.00" route="U_T1"/>
    <vehicle id="car_T3_33" type="car" depart="567.14" departLane="0" departSpeed="10.00" route="U_T3"/>