<?xml version="1.0" encoding="UTF-8"?>

<!-- generated on 2023-10-05 16:52:58 by Eclipse SUMO sumo Version 1.18.0
-->

<configuration xmlns:xsi="http://www.w3.org/2001/XMLSchema-instance" xsi:noNamespaceSchemaLocation="http://sumo.dlr.de/xsd/sumoConfiguration.xsd">

    <input>
        <net-file value="environment.net.xml"/>
        <route-files value="episode_routes.rou.xml"/>
    </input>

</configuration>
